NetworkProject/case1_heavy.txt
 08/19/93 UW ARCHIVE           100.0  1962 W IEEE 14 Bus Test Case
BUS DATA FOLLOWS            |        |      55 ITEMS   |        |       |       |    |         |       |     |      |
   1 N400          1  1  3 1.0000   0.00     0.0      0.0     33.0     0.0     7.2   1.0      0.0     0.0   0.0    0.0        0
   2 N201          1  1  2 1.0000   0.00     0.0      0.0    625.5     0.0     0.277 1.0      0.0     0.0   0.0    0.0        0
   3 N202          1  1  2 1.0000   0.00     0.0      0.0    625.5     0.0     0.277 1.0      0.0     0.0   0.0    0.0        0
   4 N203          1  1  2 1.0000   0.00     0.0      0.0      0.0     0.0     0.277 1.0      0.0     0.0   0.0    0.0        0
   5 N204          1  1  0 1.0000   0.00     0.0      0.0      0.0     0.0     7.2   1.0      0.0     0.0   0.0    0.0        0
   6 N205          1  1  0 1.0000   0.00    31.0      0.0      0.0     0.0     7.2   1.0      0.0     0.0   0.0    0.0        0
   7 N300          1  1  0 1.0000   0.00     0.0      0.0      0.0     0.0     7.2   1.0      0.0     0.0   0.0    4.0        0
   8 N303          1  1  2 1.0000   0.00     0.0      0.0   3250.0     0.0     7.2   1.0      0.0     0.0   0.0    0.0        0
   9 N304          1  1  2 1.0000   0.00     0.0      0.0   3004.0     0.0     7.2   1.0      0.0     0.0   0.0    4.0        0
  10 N305          1  1  2 1.0000   0.00     0.0      0.0   1406.0     0.0     7.2   1.0      0.0     0.0   0.0    0.0        0
  11 N306          1  1  2 1.0000   0.00     0.0      0.0      0.0     0.0     7.2   1.0      0.0     0.0   0.0    0.0        0
  12 N307          1  1  2 1.0000   0.00     0.0      0.0   5000.0     0.0     7.2   1.0      0.0     0.0   0.0    0.0        0
  13 N308          1  1  2 1.0000   0.00     0.0      0.0      0.0     0.0     7.2   1.0      0.0     0.0   0.0    0.0        0
  14 N315          1  1  2 1.0000   0.00     0.0      0.0      0.0     0.0     0.277 1.0      0.0     0.0   0.0    0.0        0
  15 N507          1  1  0 1.0000   0.00   234.0      0.0      0.0     0.0     7.2   1.0      0.0     0.0   0.0    0.0        0
  16 N514          1  1  0 1.0000   0.00  1111.0      0.0      0.0     0.0     7.2   1.0      0.0     0.0   0.0    0.0        0
  17 N518          1  1  0 1.0000   0.00   355.0      0.0      0.0     0.0     7.2   1.0      0.0     0.0   0.0    0.0        0
  18 N526          1  1  0 1.0000   0.00  1920.0      0.0      0.0     0.0     7.2   1.0      0.0     0.0   0.0    0.0        0
  19 N627          1  1  0 1.0000   0.00   108.0      0.0      0.0     0.0     7.2   1.0      0.0     0.0   0.0    0.0        0
  20 N620          1  1  0 1.0000   0.00   217.0      0.0      0.0     0.0     7.2   1.0      0.0     0.0   0.0    0.0        0
  21 N614          1  1  0 1.0000   0.00    92.5      0.0      0.0     0.0     7.2   1.0      0.0     0.0   0.0    0.0        0
  22 N612          1  1  0 1.0000   0.00    42.5      0.0      0.0     0.0     7.2   1.0      0.0     0.0   0.0    0.0        0
  23 N608          1  1  0 1.0000   0.00    55.0      0.0      0.0     0.0     7.2   1.0      0.0     0.0   0.0    0.0        0
  24 N606          1  1  0 1.0000   0.00     5.1      0.0      0.0     0.0     7.2   1.0      0.0     0.0   0.0    0.0        0
  25 N731          1  1  0 1.0000   0.00  1450.0      0.0      0.0     0.0     7.2   1.0      0.0     0.0   0.0    0.0        0
  26 N720          1  1  0 1.0000   0.00    39.0      0.0      0.0     0.0     7.2   1.0      0.0     0.0   0.0    0.0        0
  27 N722          1  1  0 1.0000   0.00    24.2      0.0      0.0     0.0     7.2   1.0      0.0     0.0   0.0    0.0        0
  28 N707          1  1  0 1.0000   0.00  1239.0      0.0      0.0     0.0     7.2   1.0      0.0     0.0   0.0    0.0        0
  29 N701          1  1  0 1.0000   0.00     0.0      0.0      0.0     0.0     7.2   1.0      0.0     0.0   0.0    0.0        0
  30 N801          1  1  0 1.0000   0.00   520.0      0.0      0.0     0.0     7.2   1.0      0.0     0.0   0.0    0.0        0
  31 N806          1  1  0 1.0000   0.00   245.0      0.0      0.0     0.0     7.2   1.0      0.0     0.0   0.0    0.0        0
  32 N808          1  1  0 1.0000   0.00   650.0      0.0      0.0     0.0     7.2   1.0      0.0     0.0   0.0    0.0        0
  33 N850          1  1  0 1.0000   0.00   129.0      0.0      0.0     0.0     7.2   1.0      0.0     0.0   0.0    0.0        0
  34 N811          1  1  0 1.0000   0.00     0.0      0.0      0.0     0.0     7.2   1.0      0.0     0.0   0.0    0.0        0
  35 N813          1  1  0 1.0000   0.00   128.0      0.0      0.0     0.0     7.2   1.0      0.0     0.0   0.0    0.0        0
  36 N822          1  1  0 1.0000   0.00    62.0      0.0      0.0     0.0     7.2   1.0      0.0     0.0   0.0    0.0        0
  37 N829          1  1  0 1.0000   0.00    12.0      0.0      0.0     0.0     7.2   1.0      0.0     0.0   0.0    0.0        0
  38 N831          1  1  0 1.0000   0.00     2.5      0.0      0.0     0.0     7.2   1.0      0.0     0.0   0.0    0.0        0
  39 N838          1  1  0 1.0000   0.00   219.0      0.0      0.0     0.0     7.2   1.0      0.0     0.0   0.0    0.0        0
  40 N941          1  1  0 1.0000   0.00    44.0      0.0      0.0     0.0     7.2   1.0      0.0     0.0   0.0    0.0        0
  41 N937          1  1  0 1.0000   0.00     8.0      0.0      0.0     0.0     7.2   1.0      0.0     0.0   0.0    0.0        0
  42 N931          1  1  0 1.0000   0.00    15.5      0.0      0.0     0.0     7.2   1.0      0.0     0.0   0.0    0.0        0
  43 N921          1  1  0 1.0000   0.00    42.6      0.0      0.0     0.0     7.2   1.0      0.0     0.0   0.0    0.0        0
  44 N920          1  1  0 1.0000   0.00     2.5      0.0      0.0     0.0     7.2   1.0      0.0     0.0   0.0    0.0        0
  45 N916          1  1  0 1.0000   0.00     2.5      0.0      0.0     0.0     7.2   1.0      0.0     0.0   0.0    0.0        0
  46 N911          1  1  0 1.0000   0.00     2.0      0.0      0.0     0.0     7.2   1.0      0.0     0.0   0.0    0.0        0
  47 N910          1  1  0 1.0000   0.00    17.3      0.0      0.0     0.0     7.2   1.0      0.0     0.0   0.0    0.0        0
  48 N901          1  1  0 1.0000   0.00     0.0      0.0      0.0     0.0     7.2   1.0      0.0     0.0   0.0    0.0        0
  49 N200          1  1  2 1.0000   0.00     0.0      0.0      0.0     0.0     0.277 1.0      0.0     0.0   0.0    0.0        0
  50 LD5           1  1  0 1.0000   0.00     0.0      0.0      0.0     0.0     7.2   1.0      0.0     0.0   0.0    0.0        0
  51 N100          1  1  2 1.0000   0.00     0.0      0.0   3750.0     0.0     2.4   1.0      0.0     0.0   0.0    0.0        0
  52 N101          1  1  2 1.0000   0.00     0.0      0.0   3750.0     0.0     2.4   1.0      0.0     0.0   0.0    0.0        0
  53 N102          1  1  2 1.0000   0.00     0.0      0.0      0.0     0.0     2.4   1.0      0.0     0.0   0.0    0.0        0
  54 N103          1  1  0 1.0000   0.00     0.0      0.0      0.0     0.0    14.4   1.0      0.0     0.0   0.0    0.0        0
  55 N104          1  1  0 1.0000   0.00     0.0      0.0      0.0     0.0    14.4   1.0      0.0     0.0   0.0    0.0        0
-999 
BRANCH DATA FOLLOWS<  |     ><  |      >    54 ITEMS                         |         |   |      |       |      |     |
  49    2  1  1 1 0  0.000005  0.0000034   0.000      0     0     0    0 0  0.0       0.0 0.0    0.0     0.0    0.0   0.0
  49    3  1  1 1 0  0.000010  0.0000069   0.000      0     0     0    0 0  0.0       0.0 0.0    0.0     0.0    0.0   0.0
  49    4  1  1 1 0  0.000016  0.0000105   0.000      0     0     0    0 0  0.0       0.0 0.0    0.0     0.0    0.0   0.0
  49    5  1  1 1 0  0.000021  0.0000140   0.000      0     0     0    0 0  0.0       0.0 0.0    0.0     0.0    0.0   0.0
   5    6  1  1 1 0  0.000005  0.0000036   0.000      0     0     0    0 0  0.0       0.0 0.0    0.0     0.0    0.0   0.0
   6    7  1  1 1 0  0.009045  0.0060298   0.000      0     0     0    0 0  0.0       0.0 0.0    0.0     0.0    0.0   0.0
   7    8  1  1 1 0  0.000001  0.0000010   0.000      0     0     0    0 0  0.0       0.0 0.0    0.0     0.0    0.0   0.0
   7    9  1  1 1 0  0.000001  0.0000010   0.000      0     0     0    0 0  0.0       0.0 0.0    0.0     0.0    0.0   0.0
  14   10  1  1 1 0  0.000001  0.0000010   0.000      0     0     0    0 0  0.0       0.0 0.0    0.0     0.0    0.0   0.0
  14   11  1  1 1 0  0.000001  0.0000010   0.000      0     0     0    0 0  0.0       0.0 0.0    0.0     0.0    0.0   0.0
  14    7  1  1 1 0  0.000001  0.0000010   0.000      0     0     0    0 0  0.0       0.0 0.0    0.0     0.0    0.0   0.0
  12    7  1  1 1 0  0.000001  0.0000010   0.000      0     0     0    0 0  0.0       0.0 0.0    0.0     0.0    0.0   0.0
  13    7  1  1 1 0  0.000001  0.0000010   0.000      0     0     0    0 0  0.0       0.0 0.0    0.0     0.0    0.0   0.0
   7    1  1  1 1 0  0.002261  0.0015074   0.000      0     0     0    0 0  0.0       0.0 0.0    0.0     0.0    0.0   0.0
   7   15  1  1 1 0  0.000045  0.0000300   0.000      0     0     0    0 0  0.0       0.0 0.0    0.0     0.0    0.0   0.0
  15   16  1  1 1 0  0.000393  0.0002620   0.000      0     0     0    0 0  0.0       0.0 0.0    0.0     0.0    0.0   0.0
  17   16  1  1 1 0  0.000393  0.0002620   0.000      0     0     0    0 0  0.0       0.0 0.0    0.0     0.0    0.0   0.0
  17   18  1  1 1 0  0.000393  0.0002620   0.000      0     0     0    0 0  0.0       0.0 0.0    0.0     0.0    0.0   0.0
  19   20  1  1 1 0  0.000206  0.0001376   0.000      0     0     0    0 0  0.0       0.0 0.0    0.0     0.0    0.0   0.0
  21   20  1  1 1 0  0.000206  0.0001376   0.000      0     0     0    0 0  0.0       0.0 0.0    0.0     0.0    0.0   0.0
  21   22  1  1 1 0  0.000360  0.0002399   0.000      0     0     0    0 0  0.0       0.0 0.0    0.0     0.0    0.0   0.0
  23   22  1  1 1 0  0.000360  0.0002399   0.000      0     0     0    0 0  0.0       0.0 0.0    0.0     0.0    0.0   0.0
  23   24  1  1 1 0  0.000181  0.0001206   0.000      0     0     0    0 0  0.0       0.0 0.0    0.0     0.0    0.0   0.0
  24    1  1  1 1 0  0.000181  0.0001206   0.000      0     0     0    0 0  0.0       0.0 0.0    0.0     0.0    0.0   0.0
  25   26  1  1 1 0  0.000119  0.0000797   0.000      0     0     0    0 0  0.0       0.0 0.0    0.0     0.0    0.0   0.0
  26   27  1  1 1 0  0.000001  0.0000010   0.000      0     0     0    0 0  0.0       0.0 0.0    0.0     0.0    0.0   0.0
  28   27  1  1 1 0  0.000501  0.0003337   0.000      0     0     0    0 0  0.0       0.0 0.0    0.0     0.0    0.0   0.0
  28   29  1  1 1 0  0.001378  0.0009184   0.000      0     0     0    0 0  0.0       0.0 0.0    0.0     0.0    0.0   0.0
  28    1  1  1 1 0  0.001378  0.0009184   0.000      0     0     0    0 0  0.0       0.0 0.0    0.0     0.0    0.0   0.0
  33   39  1  1 1 0  0.000699  0.0004661   0.000      0     0     0    0 0  0.0       0.0 0.0    0.0     0.0    0.0   0.0
  39   34  1  1 1 0  0.000400  0.0002668   0.000      0     0     0    0 0  0.0       0.0 0.0    0.0     0.0    0.0   0.0
  34   32  1  1 1 0  0.000001  0.0000010   0.000      0     0     0    0 0  0.0       0.0 0.0    0.0     0.0    0.0   0.0
  31   32  1  1 1 0  0.000403  0.0002686   0.000      0     0     0    0 0  0.0       0.0 0.0    0.0     0.0    0.0   0.0
  31   30  1  1 1 0  0.000403  0.0002686   0.000      0     0     0    0 0  0.0       0.0 0.0    0.0     0.0    0.0   0.0
  30    1  1  1 1 0  0.000001  0.0000010   0.000      0     0     0    0 0  0.0       0.0 0.0    0.0     0.0    0.0   0.0
  40   41  1  1 1 0  0.000169  0.0001129   0.000      0     0     0    0 0  0.0       0.0 0.0    0.0     0.0    0.0   0.0
  41   42  1  1 1 0  0.000169  0.0001129   0.000      0     0     0    0 0  0.0       0.0 0.0    0.0     0.0    0.0   0.0
  42   43  1  1 1 0  0.000169  0.0001129   0.000      0     0     0    0 0  0.0       0.0 0.0    0.0     0.0    0.0   0.0
  43   44  1  1 1 0  0.001558  0.0010386   0.000      0     0     0    0 0  0.0       0.0 0.0    0.0     0.0    0.0   0.0
  44   45  1  1 1 0  0.001558  0.0010386   0.000      0     0     0    0 0  0.0       0.0 0.0    0.0     0.0    0.0   0.0
  45   46  1  1 1 0  0.000929  0.0006192   0.000      0     0     0    0 0  0.0       0.0 0.0    0.0     0.0    0.0   0.0
  46   47  1  1 1 0  0.000929  0.0006192   0.000      0     0     0    0 0  0.0       0.0 0.0    0.0     0.0    0.0   0.0
  47   48  1  1 1 0  0.000451  0.0003009   0.000      0     0     0    0 0  0.0       0.0 0.0    0.0     0.0    0.0   0.0
  48    1  1  1 1 0  0.000001  0.0000010   0.000      0     0     0    0 0  0.0       0.0 0.0    0.0     0.0    0.0   0.0
  50    1  1  1 1 0  0.000001  0.0000010   0.000      0     0     0    0 0  0.0       0.0 0.0    0.0     0.0    0.0   0.0
  55    1  1  1 1 0  0.000001  0.0000010   0.000      0     0     0    0 0  0.0       0.0 0.0    0.0     0.0    0.0   0.0
  55   54  1  1 1 0  0.012733  0.0084889   0.000      0     0     0    0 0  0.0       0.0 0.0    0.0     0.0    0.0   0.0
  54   51  1  1 1 0  0.000001  0.0000010   0.000      0     0     0    0 0  0.0       0.0 0.0    0.0     0.0    0.0   0.0
  51   52  1  1 1 0  0.000001  0.0000010   0.000      0     0     0    0 0  0.0       0.0 0.0    0.0     0.0    0.0   0.0
  51   53  1  1 1 0  0.000001  0.0000010   0.000      0     0     0    0 0  0.0       0.0 0.0    0.0     0.0    0.0   0.0
  34   35  1  1 1 0  0.001422  0.0009477   0.000      0     0     0    0 0  0.0       0.0 0.0    0.0     0.0    0.0   0.0
  35   36  1  1 1 0  0.000523  0.0003488   0.000      0     0     0    0 0  0.0       0.0 0.0    0.0     0.0    0.0   0.0
  36   37  1  1 1 0  0.000565  0.0003768   0.000      0     0     0    0 0  0.0       0.0 0.0    0.0     0.0    0.0   0.0
  37   38  1  1 1 0  0.000565  0.0003768   0.000      0     0     0    0 0  0.0       0.0 0.0    0.0     0.0    0.0   0.0
  18   25  1  1 1 0  0.000174  0.0001164   0.000      0     0     0    0 0  0.0       0.0 0.0    0.0     0.0    0.0   0.0
  18   26  1  1 1 0  0.000197  0.0001316   0.000      0     0     0    0 0  0.0       0.0 0.0    0.0     0.0    0.0   0.0
  18   33  1  1 1 0  0.000450  0.0003001   0.000      0     0     0    0 0  0.0       0.0 0.0    0.0     0.0    0.0   0.0
  23   39  1  1 1 0  0.001055  0.0007034   0.000      0     0     0    0 0  0.0       0.0 0.0    0.0     0.0    0.0   0.0
  28   33  1  1 1 0  0.000411  0.0002746   0.000      0     0     0    0 0  0.0       0.0 0.0    0.0     0.0    0.0   0.0
  19   33  1  1 1 0  0.000285  0.0001900   0.000      0     0     0    0 0  0.0       0.0 0.0    0.0     0.0    0.0   0.0
-999
LOSS ZONES FOLLOWS                     1 ITEMS
  1 IEEE 14 BUS
-99
INTERCHANGE DATA FOLLOWS                 1 ITEMS
 1    2 Bus 2     HV    0.0  999.99  IEEE14  IEEE 14 Bus Test Case
-9
TIE LINES FOLLOWS                     0 ITEMS
-999
END OF DATA

